pgym/pf_cases/case30.py
# Copyright (c) 1996-2015 PSERC. All rights reserved.
# Use of this source code is governed by a BSD-style
# license that can be found in the LICENSE file.

"""Power flow data for 30 bus, 6 generator case.
"""

from numpy import array

def case():
    """Power flow data for 30 bus, 6 generator case.
    Please see L{caseformat} for details on the case file format.

    Based on data from ...

    Alsac, O. & Stott, B., I{"Optimal Load Flow with Steady State Security"},
    IEEE Transactions on Power Apparatus and Systems, Vol. PAS 93, No. 3,
    1974, pp. 745-751.

    ... with branch parameters rounded to nearest 0.01, shunt values divided
    by 100 and shunt on bus 10 moved to bus 5, load at bus 5 zeroed out.
    Generator locations, costs and limits and bus areas were taken from ...

    Ferrero, R.W., Shahidehpour, S.M., Ramesh, V.C., I{"Transaction analysis
    in deregulated power systems using game theory"}, IEEE Transactions on
    Power Systems, Vol. 12, No. 3, Aug 1997, pp. 1340-1347.

    Generator Q limits were derived from Alsac & Stott, using their Pmax
    capacities. V limits and line \|S\| limits taken from Alsac & Stott.

    @return: Power flow data for 30 bus, 6 generator case.
    @see: U{http://www.pserc.cornell.edu/matpower/}
    """
    ppc = {"version": '2'}

    ##-----  Power Flow Data  -----##
    ## system MVA base
    ppc["baseMVA"] = 100.0

    ## bus data
    # bus_i type Pd Qd Gs Bs area Vm Va baseKV zone Vmax Vmin
    ppc["bus"] = array([
        [1, 3, 0, 0, 0, 0, 1, 1, 0, 135, 1, 1.05, 0.95],
        [2, 2, 21.7, 12.7, 0, 0, 1, 1, 0, 135, 1, 1.1, 0.95],
        [3, 1, 2.4, 1.2, 0, 0, 1, 1, 0, 135, 1, 1.05, 0.95],
        [4, 1, 7.6, 1.6, 0, 0, 1, 1, 0, 135, 1, 1.05, 0.95],
        [5, 1, 0, 0, 0, 0.19, 1, 1, 0, 135, 1, 1.05, 0.95],
        [6, 1, 0, 0, 0, 0, 1, 1, 0, 135, 1, 1.05, 0.95],
        [7, 1, 22.8, 10.9, 0, 0, 1, 1, 0, 135, 1, 1.05, 0.95],
        [8, 1, 30, 30, 0, 0, 1, 1, 0, 135, 1, 1.05, 0.95],
        [9, 1, 0, 0, 0, 0, 1, 1, 0, 135, 1, 1.05, 0.95],
        [10, 1, 5.8, 2, 0, 0, 3, 1, 0, 135, 1, 1.05, 0.95],
        [11, 1, 0, 0, 0, 0, 1, 1, 0, 135, 1, 1.05, 0.95],
        [12, 1, 11.2, 7.5, 0, 0, 2, 1, 0, 135, 1, 1.05, 0.95],
        [13, 2, 0, 0, 0, 0, 2, 1, 0, 135, 1, 1.1, 0.95],
        [14, 1, 6.2, 1.6, 0, 0, 2, 1, 0, 135, 1, 1.05, 0.95],
        [15, 1, 8.2, 2.5, 0, 0, 2, 1, 0, 135, 1, 1.05, 0.95],
        [16, 1, 3.5, 1.8, 0, 0, 2, 1, 0, 135, 1, 1.05, 0.95],
        [17, 1, 9, 5.8, 0, 0, 2, 1, 0, 135, 1, 1.05, 0.95],
        [18, 1, 3.2, 0.9, 0, 0, 2, 1, 0, 135, 1, 1.05, 0.95],
        [19, 1, 9.5, 3.4, 0, 0, 2, 1, 0, 135, 1, 1.05, 0.95],
        [20, 1, 2.2, 0.7, 0, 0, 2, 1, 0, 135, 1, 1.05, 0.95],
        [21, 1, 17.5, 11.2, 0, 0, 3, 1, 0, 135, 1, 1.05, 0.95],
        [22, 2, 0, 0, 0, 0, 3, 1, 0, 135, 1, 1.1, 0.95],
        [23, 2, 3.2, 1.6, 0, 0, 2, 1, 0, 135, 1, 1.1, 0.95],
        [24, 1, 8.7, 6.7, 0, 0.04, 3, 1, 0, 135, 1, 1.05, 0.95],
        [25, 1, 0, 0, 0, 0, 3, 1, 0, 135, 1, 1.05, 0.95],
        [26, 1, 3.5, 2.3, 0, 0, 3, 1, 0, 135, 1, 1.05, 0.95],
        [27, 2, 0, 0, 0, 0, 3, 1, 0, 135, 1, 1.1, 0.95],
        [28, 1, 0, 0, 0, 0, 1, 1, 0, 135, 1, 1.05, 0.95],
        [29, 1, 2.4, 0.9, 0, 0, 3, 1, 0, 135, 1, 1.05, 0.95],
        [30, 1, 10.6, 1.9, 0, 0, 3, 1, 0, 135, 1, 1.05, 0.95]
    ])

    ## generator data
    # bus, Pg, Qg, Qmax, Qmin, Vg, mBase, status, Pmax, Pmin, Pc1, Pc2,
    # Qc1min, Qc1max, Qc2min, Qc2max, ramp_agc, ramp_10, ramp_30, ramp_q, apf
    ppc["gen"] = array([
        [1, 30, 0, 150, -20, 1, 100, 1, 80, 0, 0, 0, 0, 0, 0, 0, 0, 0, 0, 0, 0],
        [2, 20, 0, 60, -20, 1, 100, 1, 80, 0, 0, 0, 0, 0, 0, 0, 0, 0, 0, 0, 0],
        [22, 20, 0, 62.5, -15, 1, 100, 1, 50, 0, 0, 0, 0, 0, 0, 0, 0, 0, 0, 0, 0],
        [27, 30, 0, 48.7, -15, 1, 100, 1, 55, 0, 0, 0, 0, 0, 0, 0, 0, 0, 0, 0, 0],
        [23, 10, 0, 40, -10, 1, 100, 1, 30, 0, 0, 0, 0, 0, 0, 0, 0, 0, 0, 0, 0],
        [13, 10, 0, 44.7, -15, 1, 100, 1, 40, 0, 0, 0, 0, 0, 0, 0, 0, 0, 0, 0, 0],
        [8, 20, 0, 62.5, -15, 1, 100, 1, 50, 0, 0, 0, 0, 0, 0, 0, 0, 0, 0, 0, 0],
        [15, 30, 0, 48.7, -15, 1, 100, 1, 55, 0, 0, 0, 0, 0, 0, 0, 0, 0, 0, 0, 0],
        [10, 10, 0, 40, -10, 1, 100, 1, 30, 0, 0, 0, 0, 0, 0, 0, 0, 0, 0, 0, 0],
        [6, 10, 0, 44.7, -15, 1, 100, 1, 40, 0, 0, 0, 0, 0, 0, 0, 0, 0, 0, 0, 0]
    ])

    ## branch data
    # fbus, tbus, r, x, b, rateA, rateB, rateC, ratio, angle, status, angmin, angmax
    ppc["branch"] = array([
        [1, 2, 0.02, 0.06, 0.03, 130, 130, 130, 0, 0, 1, -360, 360],
        [1, 3, 0.05, 0.19, 0.02, 130, 130, 130, 0, 0, 1, -360, 360],
        [2, 4, 0.06, 0.17, 0.02, 65, 65, 65, 0, 0, 1, -360, 360],
        [3, 4, 0.01, 0.04, 0, 130, 130, 130, 0, 0, 1, -360, 360],
        [2, 5, 0.05, 0.2, 0.02, 130, 130, 130, 0, 0, 1, -360, 360],
        [2, 6, 0.06, 0.18, 0.02, 65, 65, 65, 0, 0, 1, -360, 360],
        [4, 6, 0.01, 0.04, 0, 90, 90, 90, 0, 0, 1, -360, 360],
        [5, 7, 0.05, 0.12, 0.01, 70, 70, 70, 0, 0, 1, -360, 360],
        [6, 7, 0.03, 0.08, 0.01, 130, 130, 130, 0, 0, 1, -360, 360],
        [6, 8, 0.01, 0.04, 0, 32, 32, 32, 0, 0, 1, -360, 360],
        [6, 9, 0, 0.21, 0, 65, 65, 65, 0, 0, 1, -360, 360],
        [6, 10, 0, 0.56, 0, 32, 32, 32, 0, 0, 1, -360, 360],
        [9, 11, 0, 0.21, 0, 65, 65, 65, 0, 0, 1, -360, 360],
        [9, 10, 0, 0.11, 0, 65, 65, 65, 0, 0, 1, -360, 360],
        [4, 12, 0, 0.26, 0, 65, 65, 65, 0, 0, 1, -360, 360],
        [12, 13, 0, 0.14, 0, 65, 65, 65, 0, 0, 1, -360, 360],
        [12, 14, 0.12, 0.26, 0, 32, 32, 32, 0, 0, 1, -360, 360],
        [12, 15, 0.07, 0.13, 0, 32, 32, 32, 0, 0, 1, -360, 360],
        [12, 16, 0.09, 0.2, 0, 32, 32, 32, 0, 0, 1, -360, 360],
        [14, 15, 0.22, 0.2, 0, 16, 16, 16, 0, 0, 1, -360, 360],
        [16, 17, 0.08, 0.19, 0, 16, 16, 16, 0, 0, 1, -360, 360],
        [15, 18, 0.11, 0.22, 0, 16, 16, 16, 0, 0, 1, -360, 360],
        [18, 19, 0.06, 0.13, 0, 16, 16, 16, 0, 0, 1, -360, 360],
        [19, 20, 0.03, 0.07, 0, 32, 32, 32, 0, 0, 1, -360, 360],
        [10, 20, 0.09, 0.21, 0, 32, 32, 32, 0, 0, 1, -360, 360],
        [10, 17, 0.03, 0.08, 0, 32, 32, 32, 0, 0, 1, -360, 360],
        [10, 21, 0.03, 0.07, 0, 32, 32, 32, 0, 0, 1, -360, 360],
        [10, 22, 0.07, 0.15, 0, 32, 32, 32, 0, 0, 1, -360, 360],
        [21, 22, 0.01, 0.02, 0, 32, 32, 32, 0, 0, 1, -360, 360],
        [15, 23, 0.1, 0.2, 0, 16, 16, 16, 0, 0, 1, -360, 360],
        [22, 24, 0.12, 0.18, 0, 16, 16, 16, 0, 0, 1, -360, 360],
        [23, 24, 0.13, 0.27, 0, 16, 16, 16, 0, 0, 1, -360, 360],
        [24, 25, 0.19, 0.33, 0, 16, 16, 16, 0, 0, 1, -360, 360],
        [25, 26, 0.25, 0.38, 0, 16, 16, 16, 0, 0, 1, -360, 360],
        [25, 27, 0.11, 0.21, 0, 16, 16, 16, 0, 0, 1, -360, 360],
        [28, 27, 0, 0.4, 0, 65, 65, 65, 0, 0, 1, -360, 360],
        [27, 29, 0.22, 0.42, 0, 16, 16, 16, 0, 0, 1, -360, 360],
        [27, 30, 0.32, 0.6, 0, 16, 16, 16, 0, 0, 1, -360, 360],
        [29, 30, 0.24, 0.45, 0, 16, 16, 16, 0, 0, 1, -360, 360],
        [8, 28, 0.06, 0.2, 0.02, 32, 32, 32, 0, 0, 1, -360, 360],
        [6, 28, 0.02, 0.06, 0.01, 32, 32, 32, 0, 0, 1, -360, 360]
    ])

    ##-----  OPF Data  -----##
    ## area data
    # area refbus
    ppc["areas"] = array([
        [1, 8],
        [2, 23],
        [3, 26],
    ])

    return ppc

def pf_case():
    ppc = case()

    # gen_id, from 0
    ppc["controlled_gen"] = array([
        [6],
        [7],
        [8],
        [9]
    ])

    ##-----  Simulation Data  -----##
    ppc["load_p"] = array([[0.20981374093403252,0.18600780067234646,0.1402858540545434,0.12887080178832366,0.11108471347543737,0.06312831819357788,0.043000785879665,0.051444305722466145,0.0468382330657653,0.03574308099048648,0.06598440321531421,0.07416446827408721,0.06572662613319646,0.08575682462993567,0.10310980313192462,0.09913324950975118,0.12575081160983134,0.14025322521072053,0.15927531158131011,0.21583188979062187,0.2049681525968425,0.2531022395490964,0.2627614280140856,0.2872656249600522,0.3143869937312058,0.3180153383677565,0.3424296741995062,0.39132922074068516,0.42232428257110255,0.4464743643467345,0.4929444774903558,0.5262690777394506,0.5273985889971833,0.5806018519791958,0.6185343272281556,0.6536149179281467,0.7123528170784473,0.7359392355912401,0.7849640360050775,0.8343429775449177,0.8581764974981686,0.9053871287304635,0.9000380334940862,0.902101149664869,0.9093922742669415,0.8995430899630892,0.8211489766364779,0.7890024215761616,0.7468084380516272,0.6739394972217574,0.6015292983139797,0.5806768285541278,0.5663868204624363,0.5383934190781537,0.5630951862219682,0.5885479227599694,0.6404367380004078,0.6766940821884851,0.7553464443927647,0.7756268366094585,0.824080847547371,0.8614562748654719,0.9051218555310385,0.937111342855012,0.9659308968806076,0.9967983351991766,1.0,0.9838283127650805,0.9933719561372516,0.9744539338449797,0.9464810753214553,0.928891498145308,0.8927208013906642,0.881430896671029,0.812059862770371,0.7863200988372006,0.7243444085075806,0.6567991520483751,0.6107587474906905,0.5814304279886571,0.5329630652035818,0.503156019172998,0.46359868315743546,0.40428281646894854,0.38531483930723964,0.3608901757579835,0.3428593453875258,0.33100843247913947,0.3173581529681707,0.31568410657827534,0.28619194954745336,0.2679375457851946,0.2876564485148425,0.26977325447697253,0.2507434430659376,0.24787280129847694],
[0.2177947141147675,0.23756423083932474,0.21860822399839008,0.19729174895281099,0.199090973556767,0.21604596221658615,0.22192171354649626,0.2441415613648985,0.22402739584058,0.23290856820419986,0.21311488278255206,0.24601446234137855,0.2573544747546611,0.25392636316119205,0.2631508538274805,0.24711330463661527,0.2819304887539617,0.26792469946272696,0.26194896582389804,0.28533890656248884,0.30773066583787145,0.3340746074913316,0.34274553636106614,0.3370829740915043,0.37268394602666144,0.40033967404200804,0.40208672039685234,0.43962130369802904,0.45403794063559777,0.46593215940034105,0.49062252362229813,0.5551202717074121,0.566725412137981,0.5980260790108363,0.6422150895511403,0.6765238608765113,0.7229908760442639,0.7573357512270623,0.8068755171988354,0.8792364431890011,0.8963531911561718,0.9316463704481303,0.950733716946344,0.9755769216282524,0.9900702713872406,0.9853542096267982,0.9233505096786492,0.8993215449937205,0.8923390528024506,0.8149909871421369,0.7998550207395347,0.7643504900522532,0.7238554198476054,0.7516203909772591,0.7410632850467963,0.7212574247920419,0.7520065762060866,0.7538973625442369,0.7841184815595631,0.8203195201378275,0.8379754927648045,0.8600196420377731,0.8838028960428862,0.8925172010792339,0.9186012766043586,0.963255755685788,0.9444849828225419,0.9809150003428166,0.990087534288647,0.9605489777253292,1.0,0.9468800063303875,0.9396958784907626,0.922249709198679,0.903969035938477,0.845809473851364,0.8308095781385274,0.7919265596147357,0.7592020415320875,0.6967173526603176,0.6506390831519815,0.6050929580111839,0.5771285642327415,0.5610934859902449,0.5129053830116796,0.4837583312305168,0.45199174620234783,0.4325384369156184,0.40415956686214444,0.3540358942597337,0.3262137048528479,0.3022771853373884,0.27292920812049826,0.23784340205679882,0.2233806799216619,0.173052004223439],
[0.26574912842516557,0.2392041441992416,0.18499428661554126,0.17049161215318828,0.18745396643692833,0.14570931114244914,0.1338439813155738,0.1325125998932208,0.14671796759442926,0.1705040162183683,0.16380178782414126,0.19695099402141017,0.2170933400470434,0.23070194397670707,0.25071214991241764,0.2645805950989939,0.26716481663468333,0.2896736167690812,0.3108786640132881,0.35420620985272366,0.36429890749496235,0.40827267243024756,0.39372765605884924,0.44932956908053073,0.4678708758585918,0.45350190011216734,0.48048227823128586,0.5024626494643611,0.5403837056448532,0.5414047246874983,0.5615105856874639,0.5996672837824967,0.6199303011815694,0.6386897254775971,0.66688888515307,0.6950616805611546,0.6940032152387547,0.7584892187891977,0.7629949153639934,0.8104426775194102,0.8044938992495079,0.8091547736593513,0.8220260483503535,0.8438179358415893,0.8223241029162218,0.7829504241896225,0.7533403002329595,0.7493299353349353,0.7095856910363028,0.6316451272324266,0.6169926320247563,0.5938560970361895,0.5903768027571262,0.619630669527716,0.6244395915302511,0.637588709084914,0.6974351926676865,0.7484409540463441,0.8174059585711589,0.8372117893121547,0.883518996428115,0.9109063957350814,0.9643032383171414,0.9700536501957837,0.9771057743175463,1.0,0.9987759712495073,0.9860721777067402,0.9458528658314204,0.9493723393101194,0.9203788708206703,0.918338343127403,0.8812716146361842,0.816764232612881,0.7847944588838188,0.77160953005471,0.7321386996666037,0.6746486192126129,0.6586461915969251,0.6044160931182098,0.5764817872982416,0.5585340575455812,0.5130105311176171,0.49353756391759357,0.494451271984431,0.4489350496623555,0.4370935389920459,0.4559673878016406,0.4016591058097717,0.39818324592024484,0.39613030294558144,0.3786528071494336,0.3635462225106242,0.36405502961665887,0.3237006345545939,0.32841557036233426],
[0.13588675347909313,0.15078816874706993,0.13539326501474905,0.14364962283855318,0.13871144037492572,0.18273026058255812,0.1862785466393219,0.1836727201104607,0.2021890149353103,0.17734679457617075,0.19443846978292487,0.22900699804181504,0.2062202158169113,0.23110671678771388,0.2131426334399536,0.2590888402426803,0.23937681051501983,0.24885728847534527,0.25486248557068886,0.263009599591124,0.30511555488541847,0.30321478880845093,0.3284430719339607,0.33655935498024675,0.3460621196137083,0.33915273437703286,0.3709215629796824,0.38360898650302516,0.42528226348240505,0.45527648162900514,0.46080491993279277,0.47050503883689765,0.529945863003308,0.5448489940726151,0.5899964686310935,0.6107422212282472,0.6580400013918347,0.6779980066094675,0.7195856198382726,0.7610000247044669,0.8066726103061835,0.8191915741743777,0.8381519694556965,0.8346481716990344,0.8220027199410267,0.8400554271021418,0.7861895521846215,0.7318209374981557,0.6922702600408094,0.6473489499112027,0.6332385351335502,0.5864044094930746,0.5863164974923292,0.5750495486030542,0.577830322731066,0.5818616049157731,0.6330836401323792,0.6666942888875776,0.7111524644863851,0.7314752157392842,0.785047908100737,0.8370217587042039,0.8609007990127735,0.8907394652973951,0.9295205457143357,0.940789869384511,0.9601450507670393,0.9877120374543698,1.0,0.9981394403476912,0.9607569275510678,0.9740692826849537,0.9425283098624061,0.9083924028116565,0.8760693287875904,0.8067660448705382,0.7558991349881806,0.7184671432617764,0.6470165341577219,0.5934065471750293,0.5511633279590662,0.5172077374693813,0.49232408156151725,0.47570503549597415,0.43700316285568147,0.3996102961456118,0.3964357112578873,0.3954412369050371,0.38001882086873967,0.3390174426766874,0.31931739234666934,0.32411276763798863,0.2734391818145935,0.24565459335069847,0.23215401116377737,0.18423196948916734],
[0.1995779297532319,0.18225785172622794,0.15858812725630886,0.11202192663231772,0.09835774524614829,0.09351661256330847,0.08025203846934878,0.04120703837128639,0.07025593078529085,0.05565327928548686,0.07312004807134989,0.06841494597422809,0.06662775235294224,0.11335174819527453,0.1306253769173025,0.12678291485480755,0.15841945609409064,0.1933692184639014,0.1890124549622401,0.23775936214289645,0.24656506388795651,0.2798709946085905,0.3147593403011767,0.33998073649598676,0.3864833488067508,0.4059757672413367,0.4406341983575818,0.46258773238097195,0.5272382993217255,0.5389053335925191,0.586104195735606,0.6413184967516307,0.6616944788086457,0.7201955792513621,0.7482520041877335,0.769670908639785,0.8361149304484101,0.8449948948179136,0.8779475291338965,0.9356843080764288,0.953801404088077,0.9763552499731711,0.97902262099267,1.0,0.9725601991803788,0.964902714504665,0.94061065602757,0.8965902327332963,0.8522700181916882,0.8055053728025774,0.762313518843158,0.7432531909255902,0.6952674407278703,0.7037578452707954,0.7265719964771212,0.7368002708286346,0.7202071266893859,0.7634692297103214,0.7993568939534623,0.842035171485449,0.8648862116972827,0.89698339226954,0.9243156359244252,0.942459348458559,0.9690047148052903,0.961244966366522,0.984430803738056,0.969745591366476,0.9678262679070274,0.9828460143061677,0.996312097750967,0.9520455961429802,0.9189034396027257,0.9169706154416786,0.8620296495786567,0.8479261840786887,0.7880982736143678,0.7535638928726859,0.7065110022306756,0.6638397922083172,0.6213105091368505,0.6241710008231168,0.5952532529907066,0.5779508149667231,0.5268588586464455,0.5216694078987204,0.5058908500613324,0.48099900289736003,0.47938666489511106,0.44982678476864174,0.3866815200935014,0.35731189120711015,0.32366278057119524,0.295259373883011,0.2655129751957811,0.21083282855232122],
[0.2049547276461837,0.21198296145903092,0.17613324660313187,0.16362365081261562,0.14667698729288814,0.1722058863661172,0.1413458435133869,0.15098545110273678,0.14772151671588604,0.13173613919353455,0.12122770676394634,0.13892242570581098,0.1231696134515888,0.15678575571503187,0.17394393926967033,0.16419967392200155,0.17809027186391024,0.17772377076727158,0.2395834403768826,0.25322089564501676,0.26314406879331037,0.28893825363031755,0.32667625413021484,0.37064939403136354,0.37532602423932226,0.4127402610935741,0.4567937446487762,0.4806405293322186,0.5561545382872388,0.5830488483058488,0.6023880866949426,0.6570008195328596,0.723339792837733,0.7527699346985047,0.7582917017680618,0.8320173304379741,0.8350034351163592,0.8812399543422417,0.9113454207017809,0.9422400948687691,0.9818998518980809,0.9885416949487468,0.9835444010115573,0.9689356354139591,0.9323651357782999,0.8943199363794141,0.8947497195674393,0.8381531236257922,0.7703750601488086,0.7407876838578551,0.6826041160085102,0.6526352609928777,0.6377439459938236,0.6293838878928996,0.6215832709286405,0.6776985695278993,0.6769609879195195,0.7300540392875032,0.7588232982199615,0.7985822215493389,0.8274434368513552,0.8879177915149099,0.9100324506083596,0.9207007841479595,0.9512390719035727,0.9866284790763784,0.9627535889873577,0.9744040799935427,0.9913104182712072,1.0,0.9706130990784786,0.9387854537191294,0.9464547328273992,0.9290378482880397,0.8978818372878945,0.8971081884809011,0.8702682202054591,0.8038224888697906,0.7875994463477958,0.7484218638961169,0.7123375757496501,0.6820698167309801,0.6086314070687305,0.5946016645124983,0.5424744441995718,0.46983594740724477,0.45454744716055884,0.4101692882689798,0.3619013419733491,0.32594464121455896,0.28821803364072274,0.22526346838425304,0.23177313661501725,0.19309902864231276,0.152905273661323,0.16252366692731315],
[0.1544132569296466,0.13762112986089547,0.15586668534497178,0.15828103652903452,0.1629051134690403,0.1619656108711686,0.15813320771972056,0.14468664728925218,0.15875735208959,0.16967568576047348,0.1622792210338621,0.18983903939097485,0.19059436785936565,0.1899133253963605,0.21243265398618127,0.21688615256793897,0.20562802521277745,0.22287214021986043,0.24083705463414395,0.2792772536417543,0.2893073277416484,0.3217888911678995,0.35391504336999524,0.3548761801070097,0.373057862267626,0.39946017893882424,0.4429676590488888,0.49251801163975717,0.49126870951299917,0.5605441658852514,0.5656595604871092,0.5991072503266908,0.6221664192891457,0.6516439484353894,0.71914924839962,0.750072288376896,0.7788155839238856,0.7803122290214013,0.7975646368476088,0.8166745797563488,0.8403678168598028,0.8739507768223924,0.8758807885693507,0.8397599304230086,0.838839083239459,0.8057245921819107,0.7904255068573399,0.7163934018286804,0.6700094436076129,0.6564598190369845,0.6117846598383185,0.595797363722274,0.5708012028400236,0.570504600374731,0.5965770379099623,0.6584605681506318,0.6778904020089922,0.7463781156815699,0.8059336115926773,0.8220012087188778,0.9019232713426238,0.9031485260319998,0.9504710904316711,0.9647732337815454,0.9920507723675765,0.9863779661143535,1.0,0.9751115589697379,0.9821363398458687,0.9704263117717709,0.934765731363209,0.9176825125622893,0.8637621834556739,0.8525013409980695,0.7896679548787392,0.7653743860314556,0.7070012181233541,0.6863002175410291,0.6479202347988287,0.6041233871065264,0.5870008477096221,0.5633191854719714,0.5162824922298399,0.4847652592508599,0.4723349504277968,0.47669869762313793,0.4580869510807882,0.42945741780945895,0.396028630482028,0.4060382594782514,0.3644443957650909,0.3629287739680886,0.34480621242881604,0.33018166631697365,0.2735970614404602,0.24196118269851669],
[0.2264130071902327,0.1767228290058652,0.1499858438054089,0.16307389352872978,0.12830149693614815,0.11557471975899708,0.10792600473181016,0.08082574415207056,0.08788629583977015,0.0682363858499516,0.07548835908233355,0.12298861361268554,0.10619504933924957,0.11650573711329652,0.1503337981867914,0.18051513319627158,0.1669079474996963,0.2076448532747176,0.2386172945327128,0.24859627756453653,0.2899725317074847,0.30954765868237766,0.34610714777447144,0.344729662986659,0.3769307814641382,0.41429788472529105,0.43986059017661855,0.4694952592523861,0.5074032551241443,0.5592020585871201,0.5983033305607893,0.6136417857004315,0.6615865412042683,0.6567545980030309,0.6993798697451726,0.740625983739674,0.7624832028881626,0.8083848068579089,0.7963949837942348,0.8427059669868131,0.8349715603232276,0.8466893275985984,0.8408094379566348,0.8684357323402199,0.8610970711939013,0.8139930326506348,0.8071878883639417,0.7815728024676099,0.713233051552768,0.7158673127531249,0.6715819809500596,0.6335405280866337,0.649903263351459,0.6302731996353764,0.6453514019259962,0.6756252833137092,0.6981716719571065,0.7477793584674107,0.7896905462434085,0.8392148520081371,0.8407461782538684,0.8945683642336902,0.904781420427026,0.9405351195886722,0.9589637753658227,0.9824352639829051,0.9712988800793925,1.0,0.9784472510768585,0.99905801576343,0.97274248393362,0.9759193200903137,0.9375101103471633,0.9227949604285796,0.8507972113265605,0.8366939294713652,0.7678338576388334,0.750772231966765,0.7009422977962079,0.6421898292449549,0.5985519281845872,0.5573718320535427,0.5107446155199377,0.5058025345745458,0.4540613488358609,0.45033463307112714,0.4112936482298612,0.3952363060696315,0.35445728867068405,0.32199660281110937,0.31509183513764116,0.2974236072186961,0.3086610850997644,0.27474175004036533,0.2368380880760861,0.2545814687897883],
[0.21712993673192282,0.15956756139038203,0.10335554441406676,0.05283559711371523,-0.012053815699580944,-0.010090408979641096,-0.015423633855569515,-0.013322529986830157,-0.0020384269622828587,-0.015200380889884575,0.02628485423959628,0.030742922257937386,0.09273482581393792,0.11017461882062604,0.14767550704611657,0.16112033893557595,0.22346094386952578,0.24642719714964081,0.27840331602760854,0.3394727864937839,0.3658335773648996,0.3813962029297605,0.4004631301106058,0.4154771017636326,0.41702661919377565,0.44388218341007396,0.44588260142559155,0.47859300836407287,0.49000112605915863,0.47536939685940544,0.49802305811960185,0.5362652849014339,0.5320746266837033,0.5515712333361281,0.5616017075001043,0.6105268920565152,0.6402941622936182,0.669185368224001,0.669455399755045,0.6993996944461034,0.7378985223576316,0.7896671864450163,0.8180206028914818,0.8304883718160072,0.8153927178870981,0.8184946105335081,0.8047017924607155,0.7938713562225326,0.7411503470657252,0.729812974397497,0.7011346532723138,0.7037083961874171,0.6943760241683297,0.6927355426933404,0.7207817820696866,0.7508198091974354,0.7846906921319297,0.8078055521436561,0.8152990632893127,0.8704223851830485,0.8750227881286955,0.8998151765447542,0.9247563446253443,0.9497524049334132,0.9599558280620141,0.9749771518632951,0.9748504484429504,1.0,0.9778016417307288,0.9727441356936788,0.9515879542581017,0.909048096932903,0.9113730869143102,0.883154652665093,0.8373911347623941,0.8146302801772803,0.7598353023755903,0.7156227730605595,0.6930425985340176,0.6579049566692016,0.6228506936423576,0.5780238960908876,0.535815251081357,0.5244885102972262,0.4907715628327589,0.4586694790330159,0.41698463514058454,0.4178143321675615,0.3692398993164231,0.3420662505990376,0.348274185835251,0.32137414108654083,0.28287621523367606,0.2777454631137918,0.2274114791349299,0.20443039368738247],
[0.21036743677431277,0.1738072489421647,0.1600589917315221,0.11848048953995823,0.10060727252171073,0.10305641079577961,0.06546005787247121,0.07594743422814043,0.05911838734154716,0.05088659427601372,0.061106063808519136,0.07114445455421094,0.07195327701318856,0.07361371867774502,0.07925910385899586,0.09254081318259093,0.10781307295919879,0.12232792552889277,0.157828808392941,0.16479619474209772,0.1665186828133354,0.21107830732775681,0.23303430664011618,0.2732105243276607,0.303482212907991,0.3061556510881415,0.3522944172310273,0.37564262269134713,0.41761335582431447,0.46070071330708395,0.48379964005557524,0.5113195875858569,0.5617767237034932,0.5838937541734528,0.6323892383025699,0.6393054442456536,0.6945658439314796,0.7254525256252525,0.7658447629766316,0.8092793955806614,0.8236021558508886,0.8466015362800298,0.8659085624127463,0.8466884089549195,0.8501693531485993,0.8169511084974359,0.7943661021899228,0.7691414468810494,0.7318892257194759,0.7035304392461351,0.6469978971585173,0.6265810721112579,0.6186651904357812,0.604650187252934,0.6393881390336363,0.6384617968041596,0.702749109889944,0.717889032598788,0.7639480366866482,0.8091830646948704,0.8631723928005621,0.8734728564455139,0.9237644220792158,0.9371219403888434,0.9504600976742774,0.9576803537016177,1.0,0.9635418043304421,0.9829524949184224,0.9550105189473095,0.9390485974869461,0.9090457787457027,0.9144643683768013,0.8658035356712566,0.8265580955144737,0.7654425577278741,0.7126261774841123,0.700303058818993,0.6480645196756577,0.6067906175217589,0.5627637733613119,0.5258639051763364,0.47081448187539454,0.45696503254223525,0.4271285236629767,0.412858319230104,0.3639517831966455,0.33171241727597234,0.34912878280977994,0.32005234021196666,0.2919396772279793,0.2491687625189225,0.2565966639300579,0.2228350069425459,0.20043479911552264,0.1445961192171923],
[0.1587454038775857,0.10347714572053784,0.04389380846712451,0.03272165702424683,0.00904934459130243,0.007722181182328698,-0.02182069217345266,0.005438822981860713,0.0020828719607777833,0.026609114844683368,0.023776127148962118,0.07066178184727478,0.07074160400593477,0.11266776713199232,0.14507433206911663,0.18338352719430165,0.20490695992666896,0.23003505534109156,0.255178038402616,0.30310249150551516,0.32816599367190846,0.3505263254102033,0.3809689370951045,0.4072346870382314,0.4294675087913328,0.4121384935991075,0.4570900183458944,0.44442601621675676,0.476888440530029,0.49270196592642446,0.4826010110482169,0.49600155466861806,0.5128840130585315,0.5558434540024948,0.5562531989842667,0.5790302895059999,0.634868623472843,0.6487334169971374,0.6600472708458996,0.7148637782816825,0.740468532477898,0.7271572839652075,0.7624739097159774,0.7716733075293619,0.7314999536954094,0.7136628761613976,0.6859120582072411,0.6682473594388345,0.6450770059045778,0.6059586259058917,0.5743254117811946,0.5462317764167277,0.5110381557285161,0.5317115850566785,0.5624941199132305,0.5640860632817287,0.6143255936897765,0.6445822554807571,0.679212148616036,0.7263248089061729,0.7823892607007286,0.84018106425123,0.8883069455389511,0.897883651799265,0.9443433069384313,0.9469506768030425,0.9802999561364251,0.9772238673662652,1.0,0.9782467693515359,0.9684846530531805,0.9587456227885003,0.93319684358138,0.8609925538765287,0.8204526958641781,0.7665442270277909,0.7168534884677022,0.6640133900713907,0.6017314634839879,0.5645465870429747,0.5220034552906699,0.4774171268664186,0.467309182388724,0.44021806026067173,0.437039320184639,0.40674664167211144,0.4037403089471884,0.38563550990427425,0.3681528924229158,0.3715747920532265,0.34984598518298626,0.34110089911998964,0.31644144107241945,0.2928622054502428,0.2277778065826903,0.18147579887667495],
[0.2686932172398104,0.24598177383086264,0.1965501560527151,0.1903019196439435,0.1366493831413558,0.14723994519271857,0.14228761014144067,0.11848854702912538,0.1158563027873391,0.13818815440753573,0.1480767578498951,0.18256554051247592,0.1650705769043561,0.20759078911788675,0.20813507223658892,0.2559648384493075,0.27484972114667233,0.29410426047322075,0.2951171174147531,0.331595193515898,0.36042998915832286,0.3598345087005415,0.36528513484035846,0.39636472896392333,0.4187798845975284,0.423780870866212,0.44037122221565417,0.4930142513619427,0.4869930974084756,0.5002987454676011,0.5516449834822378,0.5801855025801976,0.5667057294205343,0.6296901116276359,0.6541026861393221,0.6778426463786507,0.7459406978019132,0.750326511565542,0.8190089810637247,0.8378489603647757,0.8865992599588582,0.9125078319471256,0.9515908315194358,0.946306329260806,0.923410629903428,0.8978650838508399,0.8821670942726243,0.8426284453260252,0.7861021531802199,0.7218435249199727,0.68055628196651,0.6370903725840812,0.5909471936235358,0.6033943739450511,0.5860702930056543,0.6175322430045236,0.6695160888530427,0.6973582097294548,0.7330097150291078,0.7800527117113104,0.8212319887919051,0.871149121456301,0.903417332331665,0.924417130068862,0.9451101841699001,0.970621633915293,0.9530785195263847,0.9823874577255279,0.9850747117132088,1.0,0.95573195212678,0.9459172753581887,0.9408435155218665,0.9352088681950268,0.9093006446445661,0.8634123883933855,0.8349196975014062,0.8329936281118044,0.7811820308595855,0.7519944913885833,0.7044294609215396,0.6824771194615218,0.6426100818927097,0.6099494834967588,0.5640295154137509,0.5458461098050393,0.49183732387708967,0.4684817692503593,0.4376207189497904,0.36770545703957214,0.3471635685997276,0.2979132231958897,0.29105229336450916,0.23647195073564792,0.19791984694478862,0.16429677331307593],
[0.18201584641423268,0.1519364599130169,0.16058602316129342,0.15523076175527042,0.1515869779519197,0.16004569576201583,0.16576860084272732,0.20084499371041742,0.191772395930459,0.19869662158232623,0.21742863742713947,0.22471585790428353,0.21452484294536053,0.24500627321067864,0.2693683428435061,0.2639523307550993,0.2762386083421798,0.320668458025165,0.3340665025063138,0.343295389814488,0.3606343606477228,0.3695007800730202,0.4206813002450029,0.43885432631938825,0.4456478446007268,0.482004463108419,0.5137796044321467,0.527910283390983,0.556718059934516,0.6091929461476422,0.6101293888352537,0.6483803221171067,0.6710129221168389,0.6975758275453853,0.7375052124869299,0.7253085493481579,0.7825343362021551,0.8045686577111437,0.8247171427691836,0.8373311549931609,0.8455884003456061,0.8407419947174479,0.8541226107312153,0.8528783565058102,0.8502306382661129,0.8090597308075974,0.7972246666340773,0.7847147096622755,0.7487159857357168,0.7402032808610771,0.7445030917752122,0.70423195487743,0.7254572307379348,0.7145104425600056,0.7281536452427714,0.7614320708433777,0.7745889905959258,0.8025828326146943,0.8543267640091667,0.887628173443169,0.908351697963173,0.9313595923136797,0.969910454316193,0.9780384944895596,0.9506192235578007,0.9843936586461096,1.0,0.9906428197530991,0.9886099170943115,0.9418743623338656,0.9708120491966526,0.9243356861695954,0.9124914015305756,0.9202013432882129,0.900196494921803,0.8665230061039697,0.8489938981546462,0.8036814130586617,0.7910359586930853,0.7638852526142634,0.7444443162181629,0.6977671244283892,0.6848138321916822,0.6325154418813526,0.5970870170358098,0.5752323193678663,0.5515532416435961,0.5368741013451972,0.5115149732075602,0.46420764416184357,0.4365105645155161,0.38617742763638313,0.37791246529886163,0.3191250820555206,0.28180262803426065,0.23565374920419072],
[0.1816046467966735,0.1327030578435105,0.1179144028164112,0.08629867613616757,0.04530532800719965,0.06176466618957184,0.06575455327957738,0.05170500940762283,0.05219221344405224,0.05987724011268644,0.08564789927449651,0.09185608133775328,0.083804205060082,0.10832595262430084,0.1315353565734944,0.14886468149458956,0.19328195710527213,0.1982886376683819,0.24819223902194731,0.2818524080902991,0.315208580554736,0.3226847616135344,0.35607772422065687,0.3496819247858307,0.3744125675513417,0.4349170660833801,0.4328000321567162,0.47053285681527485,0.4813732699384465,0.5245469884994347,0.5401370535271166,0.5727080412106007,0.5967464437338218,0.6308271449223312,0.6156342268914232,0.6721242075003223,0.71045980219786,0.7122872647959688,0.7500499124592189,0.7855702714229226,0.8183867200646238,0.820235142460956,0.8496672913903329,0.8527905310325354,0.8238222961098477,0.7969025610559622,0.8040590981361195,0.7838769432622797,0.7397081997636769,0.7166380804346321,0.6970355989330214,0.6746126486951272,0.6752996306622148,0.6643847976445678,0.6785262732948804,0.7162220960681832,0.7622174497297235,0.7625536267336179,0.8387850190286478,0.8608072267803002,0.8949462775294847,0.914580523652953,0.952499592197486,0.9488036022562429,0.9741876214193872,0.9823942164607699,0.9705918398618897,1.0,0.9872370456661446,0.9726872786235344,0.9446553856197746,0.9674675581497718,0.9106358020921975,0.9071728713547087,0.879141662202235,0.8280833641818092,0.8296785239865208,0.7821765062161384,0.7294950272111131,0.7030157856831228,0.675816879711096,0.6293288137275561,0.5511893851606806,0.5228523105421561,0.46141300037341787,0.42774843041875404,0.4016761912022966,0.37696379498831367,0.32110981131042887,0.31021654037538415,0.2853471493806341,0.2291324744270641,0.22048491130733042,0.20468308171641145,0.2139646610624495,0.21484761474035682],
[0.198128189150688,0.1800885627686991,0.1546420883487828,0.16559502683960323,0.13190123105373253,0.12817089018532205,0.13401901679890302,0.14723261943227206,0.10941495817093418,0.14262414938773968,0.1270357680498988,0.15158212197656032,0.15781441285066886,0.18816863787156426,0.19506014353043374,0.2226681807550878,0.2232164913783246,0.23267919272883147,0.27309861879483266,0.28720005083163463,0.29791749342399665,0.34129915136172,0.3717130148390441,0.37572020281252183,0.43912437998957804,0.4562022838885642,0.45939775142668754,0.5001580020543196,0.5182936249432419,0.5601181383223709,0.5771130965129799,0.601411990502032,0.6387335180232835,0.6581916872327129,0.6737608809579706,0.7104621469470112,0.7114744545098022,0.7486541668009794,0.7814492943647251,0.7735469142176561,0.7900447345272036,0.8072612864153985,0.8090042710071779,0.7722959385352496,0.7657902291110632,0.7520303468188967,0.7373455039001117,0.675128992505561,0.6590127253731709,0.6300558477886185,0.6200942956357414,0.596675009986253,0.571700060745844,0.5846429550115766,0.5785200258414758,0.599363088437625,0.6421527942864407,0.6631269909749501,0.7092566034579643,0.7216915834453168,0.7632124003996335,0.7839626015155116,0.8181838687188582,0.8861660464813793,0.8813402408274312,0.9268529235671717,0.950294326754941,0.9679919863906982,0.9962024796907283,0.9836215887942434,1.0,0.9836980476086855,0.951038922255457,0.9118359258659468,0.873997562622578,0.835365776986637,0.8087591409837626,0.7192364141883231,0.69529130052032,0.6313428877258257,0.5869361222686856,0.5452730731248533,0.5175830493625326,0.4510025758587088,0.4290625558115141,0.41157964907990935,0.3992829847326346,0.3584241563643676,0.33138092667274854,0.3161839059238812,0.2952698539198057,0.26728177597548414,0.2257225261237174,0.21508991042134187,0.18226374301728004,0.16758250731500035],
[0.18052091928022163,0.18821523908673574,0.1584460314123168,0.1632538338685871,0.17905177400109132,0.14490284523182623,0.15702226659064136,0.16476634384036803,0.14596565577765283,0.1797219757321306,0.19215095804015164,0.17222136781942357,0.19952751839985952,0.1882597620807607,0.23456746562628855,0.2102381155901623,0.2420733573992911,0.2529122604606928,0.2693773562028728,0.2998829535725631,0.29706348372364205,0.30447687007410934,0.34613931208016246,0.3382575752854948,0.38859384589172835,0.4188395195808927,0.41805457596242485,0.4570922168884583,0.46738837394855404,0.5111801647948192,0.5394652966892995,0.5643973484213063,0.5774239782095065,0.6170459228904542,0.6931226824702952,0.7320928190626513,0.7392403396734701,0.8165623418213671,0.852896094183177,0.8905477451533673,0.9324231922243646,0.9549269671243805,0.9741769188843331,0.9867728703137567,0.9931334740542163,0.9608521437271078,0.8960689588063259,0.8641714268034623,0.7855197505234305,0.731579201035109,0.6841741066470662,0.6188726624941401,0.6148317596242907,0.6067056043245782,0.633214815896126,0.6333782695001486,0.6509195272219452,0.7235929932675546,0.7398076955692744,0.8172403655371943,0.8410792847313481,0.8850353834935567,0.9239763883489266,0.936695759908026,0.9644717229896587,0.9867569927726008,0.9814888513041039,0.9799200152277528,1.0,0.9980108766911369,0.9757585350351029,0.9545734910180694,0.944944397699964,0.8785562659759348,0.8395728838437012,0.8212582135356569,0.7893096360665668,0.7401410370874361,0.7045491143480921,0.6554325965518455,0.60514387897659,0.5682181329377917,0.5503769012064272,0.5052185351701569,0.47408682031327704,0.45863295390368003,0.43333745041655714,0.37639220255704836,0.3670997830603706,0.3416678423670487,0.31158733851738896,0.2951997923208597,0.2629133557258272,0.22611855032252026,0.1835558699754221,0.1439632971541838],
[0.27227162488127415,0.2445064951711995,0.24447012339715612,0.22553269053928182,0.2113219818687457,0.19074887037229693,0.18705866392859294,0.17758106460143072,0.19054367345842854,0.1616758498030829,0.1755853918194672,0.16516453753435126,0.17948845368400704,0.15496888990428923,0.181429992344703,0.1445483104657091,0.17636483103388614,0.1665631834387915,0.21526409745121206,0.21974097680171586,0.2270156245243726,0.25379966843172613,0.2808346651642665,0.29901286263549554,0.35493470118880793,0.3799851637568826,0.39970660510756406,0.43082749868661957,0.4687504768492253,0.5442430063833311,0.5490883996144367,0.6012700797560309,0.6639177286025743,0.6922850501379624,0.7120717137977767,0.7773549495375593,0.8060821682002787,0.8085947835954548,0.8651241049560057,0.8496814247508048,0.8931874409518575,0.9274636700771489,0.9265307056620804,0.9220151696646403,0.8971921769142863,0.897697949687091,0.9024802771048183,0.867273521888731,0.8323520769953742,0.808132365184535,0.7789920798720956,0.763950295434706,0.743693449905459,0.7379159526690848,0.7766182344638211,0.7721593497327249,0.7849353133543144,0.7871736018281049,0.8347714127983047,0.8464755153394177,0.8626524721679939,0.879665403218881,0.904810776678111,0.9258716460843487,0.962662728125769,0.9518420689183504,0.9617860607219365,0.9615386549312301,1.0,0.994621767701512,0.9785567302094739,0.9634977300803055,0.9495549464091488,0.9459587619106488,0.9230476507782555,0.9050051374061442,0.9141559641220618,0.8572687548277125,0.8347382084373529,0.7952323906860909,0.7429159513059183,0.7330850227135247,0.6601711899400078,0.6263146457863592,0.5836501331143176,0.5064574159686087,0.4637231360751159,0.4344844520979769,0.38698579419940704,0.35387863681878584,0.32188782428144774,0.28830684787060457,0.2481302902298143,0.2312519497134601,0.17383418988715107,0.16108869857320354],
[0.10939517968264284,0.14341523507161802,0.12883961430566582,0.12713907093568533,0.13522386839357634,0.15480001686608466,0.15712824353375668,0.14668722709962198,0.1345761600641303,0.15953904155065782,0.17267558068828892,0.162918726771257,0.16879482326478318,0.20641753707990232,0.21211733357696658,0.23804916209980345,0.250283069188788,0.26086709203147845,0.26450031857700745,0.29493013565976944,0.31583009853891825,0.31670935921412363,0.32940886878612696,0.3472517899645031,0.36312574235935374,0.3888143588456028,0.38991297490091825,0.4375252999271681,0.43936875561948985,0.4681459970493538,0.5074428309177441,0.5287425239640215,0.5389152076242165,0.5762099252243718,0.6083116791628013,0.6347765259005741,0.7002576816350081,0.7320781322727747,0.7688795867999973,0.785245797549156,0.8094108921923622,0.8274378755680247,0.8471777557606301,0.8663235404908363,0.8915929303411001,0.8758726355519473,0.8332066677434572,0.8116069147162523,0.7472111038936784,0.7168200981693142,0.6901637476562662,0.6636777896616348,0.6581287930838807,0.6219908071741124,0.6541296194223163,0.6786738648211539,0.6906200633363844,0.7190351773877215,0.7801733976833553,0.8275853358428186,0.858418886056282,0.896346126343525,0.891380327224174,0.9431949153111598,0.9559415240286995,0.9430065514663476,0.9866350963941707,0.9912022113545269,1.0,0.9678655270268135,0.9878898104426165,0.9509339478202201,0.9332880193733565,0.9473489575492564,0.8878889046728263,0.8793143394365069,0.8320568672251557,0.8164659689209671,0.7924854017149653,0.7156417909492692,0.7041984096466861,0.6440415671027088,0.6066661320448766,0.5896303554466759,0.5406574225827275,0.497085238849785,0.4585091354260898,0.44284398426698907,0.4161937582200005,0.37367241339181023,0.3451457823775092,0.29655274572467055,0.2694526091532416,0.22796232157213522,0.2126306008355799,0.19470514433354771],
[0.22409666492187666,0.21485441732931584,0.20040150510159788,0.1556746706480092,0.16221430049656863,0.151442684198768,0.13794018194908023,0.112028482913079,0.09752227567095702,0.10681924172669047,0.12180863069231615,0.11171372365341739,0.11614322539200443,0.13776515502007833,0.12634743307926857,0.14771169084427005,0.14981397828446122,0.1689411173275322,0.22012927225665094,0.23704199905104031,0.25672106880472934,0.28529247104545796,0.31300167137822427,0.3246213095870864,0.3368400974052911,0.36497175567947654,0.3905029201630643,0.44461582012538886,0.49663238539040944,0.5318351408349238,0.5291527178585742,0.5749682880151138,0.6342033093913392,0.6536630245935068,0.6862878545278939,0.7224742771703349,0.7527540795266205,0.8022508194735716,0.8675317045003211,0.9046409023568419,0.929766329302369,0.959126300708024,0.9562255993590669,0.9521258738454146,0.973057438263767,0.9485571827007679,0.9080944733537937,0.896673343922847,0.856034365593885,0.8266144007450381,0.7838609694572446,0.7294991585357047,0.7122328825963059,0.7008899244496428,0.7254025188663011,0.700302731080474,0.7291416683600699,0.7501233313905727,0.7614640222695233,0.8085605171268159,0.8506661981398629,0.8625143254467977,0.8853329704089953,0.8992576763992033,0.9222063848861785,0.9576090999768424,0.9754035093221819,0.970327744550334,0.990761813936668,0.99470709991749,0.9812027711007741,1.0,0.9410515391340287,0.9155430661882152,0.9064281730051477,0.8690732594569982,0.8045159157639549,0.7702563530263311,0.7362296526490135,0.7069584873049972,0.6234948823351545,0.5871148415661966,0.5733848938003308,0.523679917349649,0.5051821075150723,0.46175515924901656,0.4035179450173512,0.37894381925036336,0.37920833512814667,0.35075415408443245,0.30910623742158505,0.2947833303718229,0.29298660726989323,0.24064060312221927,0.2286728006203846,0.23043339971376],
[0.24232759580211474,0.2150412729616395,0.1968064768936471,0.16701042129985205,0.16055470717938308,0.1363808025668291,0.1439775454879208,0.14650810454106294,0.1528016842867215,0.12966971144678718,0.14048487983404168,0.1748529620335384,0.16699409596034878,0.19936976940218926,0.19762608800006312,0.2208397731145334,0.2616027419000104,0.2728651396178949,0.3053937716581958,0.3067117079398663,0.33075400734747057,0.3404730717411013,0.3734503963781424,0.3809762453641708,0.3805606806425728,0.4276411736682823,0.44426681349753666,0.4543764019939087,0.4518892828493176,0.47989709993749985,0.5150786985617328,0.5307980035897834,0.576776035548519,0.5799298706314472,0.6040755088268773,0.6372159032607979,0.7100015793958592,0.7555221234242299,0.7710979109353314,0.8032428915270784,0.8742706861342667,0.8984852768287829,0.8979943086542833,0.9157745294938039,0.9083937782401674,0.9080202891635112,0.9059020386038424,0.8698030013963433,0.8030521518028464,0.7815572000762031,0.7215700422855856,0.6977129704875765,0.6711984101501123,0.6718648330337438,0.6949010510481223,0.6959704172418164,0.7133972758086464,0.748873489107493,0.800793382710147,0.816047104572793,0.8666123240466579,0.9093499524950834,0.9350419015678011,0.9288392377419613,0.9560873128464864,0.9512234382749603,0.9562979429606668,0.9752345744256208,1.0,0.9929465700068463,0.9573440115939607,0.9279890181724192,0.9427110748937071,0.8824463400905148,0.856328459288079,0.8378841762487529,0.8170094674825448,0.7420832967977009,0.7023485776468706,0.6780277387074037,0.6305934015002356,0.606726154070907,0.585428396649866,0.5629658930958166,0.5391528604936409,0.48559585176263187,0.45177593137605054,0.4265415009829779,0.42009694423246796,0.38087768355707846,0.3616970839380101,0.3405436446098181,0.31067527576869036,0.2876076836416397,0.27776855175444415,0.2277188354048514],
[0.17437311991757484,0.2106138608931735,0.21460665309765445,0.22697640445764722,0.23918988492745283,0.2708399858573546,0.24227306085439151,0.24434587520327486,0.26262501160229534,0.23662978398666848,0.23114535176668458,0.24354299336988605,0.22949992266681088,0.2344482676106697,0.2094572035615339,0.22909075092111975,0.21776666530146127,0.2161229448039768,0.24208049251056724,0.21504419372283165,0.21819791717745082,0.2571141566140572,0.2927187338064698,0.2717503562151824,0.32428818646205065,0.32753003800107694,0.3885654974464256,0.38924661539962657,0.45501119772921755,0.4791195591486304,0.5083382728305601,0.5341236431743178,0.5747742350376639,0.6261927182194518,0.6311515093902564,0.6975258882434905,0.7329455433416535,0.7390800050831822,0.7497786766341011,0.8168879774146176,0.8320757978516917,0.8115277845618807,0.8521598752935098,0.8487533413531725,0.8383566904888115,0.8045216220995336,0.7818427211066351,0.7847582666425577,0.7448627490858942,0.6898699079143416,0.6846332109108189,0.6689768915394173,0.6481285535434967,0.6547006777184837,0.6493907403717114,0.6694506272942115,0.6965411113863793,0.7387417490505548,0.7643058674086598,0.8010376378231991,0.8328187876193319,0.8415614581484268,0.911271290484971,0.9079010836638384,0.9384330552493866,0.9725210192508509,0.98684582815475,0.98174175915132,1.0,0.9667376615693163,0.9929168646987508,0.9721168958395063,0.9219938540007652,0.8892609424052013,0.8554082568412946,0.8240791509550927,0.7714477894597472,0.720091901498168,0.6438209807055282,0.596337699638053,0.5327223457691637,0.5142400778308016,0.4918642134505016,0.4336527395110356,0.41618131416306203,0.420430414932146,0.3686387962231038,0.35107803096357076,0.36222385733104945,0.3470637952053769,0.3313168180545266,0.30716218286064634,0.31762319136953066,0.2845020726566152,0.27745734175014125,0.2468584829934756],
[0.12580734006467145,0.10360184705598977,0.04633736931473982,0.026556445358981908,0.014379445680833108,-0.002686335666616377,0.01753558646920015,0.0311037457656331,0.026806141313896293,0.046723968678897554,0.08324610397533481,0.10270196846202478,0.11342600856130929,0.11558181406265552,0.16078766771451367,0.1784269237110549,0.2349761246136829,0.2570144412238535,0.29749150220615667,0.287843137311197,0.33568213836355315,0.33418781314479024,0.36355689146423714,0.3752638902782567,0.42367618318501865,0.41502842229800824,0.44135130794328103,0.4741279464900024,0.4741874444856577,0.47189801981368407,0.5053143039747988,0.5408849976578733,0.5478981213931793,0.5500518148594742,0.6119350365978697,0.613145331874945,0.6650925405377597,0.7031924538209678,0.7096665417710326,0.7640931375531309,0.7736668918290455,0.7977823220464648,0.8526380770715276,0.8566631074870381,0.8390091175480984,0.8233600953981621,0.7897481179131389,0.7499770665215748,0.681422979376354,0.6522408797339452,0.5925352357546674,0.5794964648324253,0.5648955089007502,0.5746076053010211,0.5796915972172932,0.574960148153537,0.6303379264528061,0.6872964818976061,0.7341300860208253,0.7682281065322797,0.8181696739822861,0.861612413035763,0.9005205738640221,0.9223970868016087,0.9481941484129701,0.942904620135122,0.9846096622711915,0.9851103978415415,1.0,0.982969965582739,0.9925667437298007,0.9707919352031796,0.9391043610748442,0.9243078823711949,0.9183465788678338,0.8918472286343755,0.8224525720550288,0.80676476667538,0.7800423670191231,0.744712793907221,0.6809335947509682,0.6316930452210843,0.6052062404375207,0.5581323670257159,0.5171851161114771,0.4430092944072027,0.41495721888645726,0.3738735339991226,0.3422519268177297,0.30637911869813383,0.2498190281516172,0.22447228738042463,0.1900446693227407,0.1730393619718905,0.14630743795538895,0.13884334371954296],
[0.18705253314554893,0.14965409527631315,0.14242694724226537,0.12320417692254125,0.11272731930510362,0.09710392424031065,0.09447348362669615,0.09627425922742557,0.11074963970678306,0.09987746747275769,0.11875783872724562,0.1491871951102402,0.1383909805006005,0.15222066430921652,0.18674407416931715,0.21524936880907006,0.23298950615453837,0.24163240924126916,0.2738937895816211,0.2917734108754175,0.31645838178407254,0.3071824552046195,0.333387218503777,0.3528863583072615,0.40313877990326236,0.3919069624959572,0.42157090588654034,0.4435116777186199,0.4628606830912949,0.46416500635374763,0.5009233708000325,0.547726570461249,0.5745731681111209,0.6074720243954735,0.6164498598109333,0.6625449999542976,0.7105865030685897,0.7268942517693955,0.7769748684035329,0.8206962622935848,0.8527134878843428,0.8744835061107867,0.9111976038493269,0.904240571218038,0.913164670176795,0.8880246542540289,0.8611462705937399,0.820490632789747,0.761815605296448,0.7157620798722153,0.6993090462076361,0.674502289232343,0.6255332813327553,0.6302890129584848,0.6403140035194931,0.6826587869270212,0.7021505966551286,0.7556476015412474,0.8120990665419848,0.8201404815117188,0.8628788280185123,0.9106413823431023,0.9557410576366387,0.9369463427432881,0.9648614047226848,0.9913008764314917,1.0,0.9885110121647892,0.9811827924949414,0.971553201123534,0.9429836731594451,0.9371483954306248,0.9120223714888469,0.8877370478781619,0.8461941274591352,0.8334590355798297,0.8132442100895731,0.7605900784970179,0.7188405126055009,0.6922760925673493,0.6225759788551262,0.5831454557705211,0.5573087706873333,0.4901067576206561,0.4496211192535475,0.40974630011493296,0.3921854016538561,0.3500339861547314,0.31135751150148305,0.2776214139185241,0.24788881974339136,0.20217785158962776,0.19357768092929006,0.18505305485932666,0.1702357085907959,0.1344325180305028],
[0.09210574251340528,0.07449518938113718,0.07500580369334948,0.05408983033060343,0.013775598865256648,0.02259277952428803,0.031029253823081245,0.028393218059496333,0.0393372167066492,0.04231800928159335,0.0595851237602229,0.07418938079564197,0.07381063223151309,0.10324481432690562,0.09777467065209056,0.13358724040492861,0.13675515968363094,0.18795322256486835,0.22479704310627063,0.2397771930341133,0.27570043989117676,0.2926137089489268,0.3223477313161459,0.33559982966748186,0.3722435036672514,0.3809305620663843,0.4307009532789944,0.4603520246358946,0.48989033475830174,0.5343562475755343,0.5457108583811171,0.6057756817094414,0.6084554083985559,0.6403504447115073,0.6757435989078251,0.7244046957455434,0.7749895612935119,0.7866228374418915,0.8605889481329373,0.8667287904793993,0.9241619065198681,0.9360618984184985,0.931320659490764,0.9347484246447498,0.9341274527263812,0.906908245176847,0.8474280802683841,0.7839585080256987,0.7523861514989364,0.678462827454228,0.6322908646911345,0.614227007577218,0.6023007920862045,0.5904245201364531,0.6297340059083923,0.6678818966296803,0.7174540784311825,0.7664484585552882,0.8112597762964362,0.8722460674372915,0.8869760535656583,0.939003307505185,0.9522417139025039,0.992880604115944,0.995990896372378,1.0,0.9752015024966073,0.9644768610159618,0.9729724062502689,0.9568568309371458,0.9168119724326248,0.8735583616606657,0.8487294522986136,0.8366517144894026,0.7956122836722075,0.7388497748885453,0.7171396282558115,0.6887649595566447,0.6590233886406386,0.6161273170642114,0.5827886296224926,0.5967829981277122,0.5520546269716246,0.550099672339489,0.532801378808281,0.4780526976430972,0.46795016870860556,0.4415980978802079,0.45432387889220055,0.4198504021013596,0.42166754924766775,0.3821192594915091,0.3394415878252422,0.3072700494977869,0.3069812909975162,0.25021308828638333],
[0.2554251221363223,0.22850717582141714,0.24399544955011562,0.20875393904550357,0.2310389860278594,0.21977597435621665,0.1867530116706908,0.20933331898584562,0.2059222579086436,0.19144406541694867,0.20000250370974143,0.21616481117471495,0.20346286998458368,0.23194707299544245,0.24770334840767916,0.2422654508646136,0.2478667188972064,0.2750963664423097,0.2709642811293172,0.31733238260716473,0.32403170515377355,0.35816860727587885,0.36311975313860756,0.39006918055795403,0.4171562497774552,0.4362277668276722,0.4538493194851944,0.4851415016060685,0.5394113051469113,0.5658596698205559,0.5650304221389959,0.6288447454509547,0.6437594811471571,0.6782820665108924,0.7098284005884057,0.7102852148719344,0.7680264112055204,0.7883691319048067,0.795226922841483,0.8249160045048513,0.8636685196941976,0.8546783152314044,0.8890751839212699,0.878008536711304,0.8667143143541258,0.8468849428427263,0.8175858809433344,0.7911832254060961,0.7487685989572814,0.7148920724706733,0.6690077157360024,0.6510341824028909,0.6693450447767146,0.6384036652114097,0.6549962090745659,0.6935228595453238,0.7293946901557719,0.743713091870002,0.7918438954615333,0.8464153494283796,0.8965749673835358,0.9240231364759403,0.9327262077845574,0.9685122448483401,0.9575129624423018,0.990586061482868,0.9772280909827308,1.0,0.973977436153648,0.9588171331596383,0.9713427034957982,0.9124904588578298,0.9049940777420268,0.8593268154450019,0.8364138348544041,0.7820793953388543,0.7194589611091368,0.6561497385493527,0.5973512064982369,0.5477006109009757,0.4983835881120071,0.45798598766280335,0.44547127922025537,0.3860701141110946,0.37452147395936564,0.32370090564605886,0.3287352571002464,0.29702179283243285,0.2754044664562214,0.23644908318331928,0.2221974357648959,0.24141461980131784,0.21067925194333004,0.19963120001360196,0.1735758270554186,0.1748509327038015],
[0.17103626450692025,0.14598687508566258,0.12914643665820383,0.12835966716072092,0.1465343356941479,0.15807796053101295,0.16600864061437623,0.14253831131889572,0.13218283460908392,0.14170410111885512,0.1315146478337742,0.1611505929188758,0.13803347947049693,0.17101360100472204,0.1689722862745189,0.19409953941879737,0.19277920459365117,0.18177393409349782,0.2146302306983124,0.22996393777604118,0.23976734529826982,0.2384923004484979,0.2673746981421408,0.26952234468884534,0.31800625269608773,0.3369550168141666,0.36104420090689565,0.3729192693026422,0.42370347666376507,0.4518750460085539,0.484292390808875,0.5116039528760405,0.5481494980078517,0.593308890837824,0.6096747526250973,0.6511123433089895,0.6827161090939622,0.7397916909869311,0.77516548218721,0.805605310891474,0.8476415583180801,0.8723669873448199,0.8880324547397923,0.9017220654752164,0.9043612260636201,0.9241357938440303,0.8705894295394985,0.863803973242101,0.8152812253079195,0.7879944468447346,0.752636574868687,0.7458864232174054,0.6931098536289316,0.6750574145280598,0.7043541409900888,0.6993836195796661,0.7027619922297884,0.7200149546819513,0.7299390446197108,0.7354699396995679,0.7647883759272027,0.7982614238305328,0.8458661690286059,0.8570020360050992,0.8935088499389597,0.9063627505337295,0.9316719434476373,0.9808386161119725,0.9668862191510723,1.0,0.9968456783906328,0.9815208108974168,0.977633435421491,0.9506289058085442,0.9253751382812232,0.8968081586696265,0.8164464278424814,0.7985262838017803,0.7162899833690043,0.6617680381484753,0.6054068519660543,0.5502020232469985,0.4966537908039645,0.46390366669288924,0.4389344317905277,0.4055779517216419,0.3589272205277036,0.3079356373014141,0.2815772027397118,0.2832066120230239,0.2586999123624634,0.23462604454725142,0.24210641805312016,0.2438874957289417,0.22312130320211682,0.24225512390459897],
[0.10856881661889839,0.09708542209466009,0.09434298006669925,0.1029549177861259,0.09516768941474285,0.09173201638947598,0.08354054209203463,0.101313249851509,0.10452102059790216,0.10825525142292447,0.14498888451895575,0.16868821058687875,0.18120323522509788,0.19932460029753032,0.21049601693055126,0.2219209531057608,0.23647373274326974,0.2834971600196751,0.27629027001278994,0.316872840797232,0.3413345914646433,0.3357398931302469,0.38540802080214576,0.37528530523042325,0.4360029222789099,0.43049759102613133,0.4377991794026105,0.4595202202314247,0.48320455105089893,0.5146489300632782,0.5320438072483985,0.5721807468917877,0.5696063610967065,0.6243748541761968,0.6580647715864963,0.6671283200926922,0.7202591878194861,0.7242297463657194,0.7866016143065415,0.7945496454848204,0.8469242361616196,0.8853582113660209,0.9001773504448454,0.9109578815807056,0.8835961469001324,0.8653556596790012,0.8344506457844235,0.7958212465640837,0.7894069141495185,0.7330852657671713,0.6932834228026917,0.6796882901154723,0.6720767432775699,0.6982910544384423,0.7204761941078248,0.707270496912328,0.7398074624939942,0.7910175139133939,0.8289798638656259,0.8685393426529053,0.9091266533571364,0.9309216657866514,0.9736177287121683,0.968775632928735,1.0,0.9734721175734345,0.9764724599887803,0.9800155591981562,0.9608051148108809,0.9638848953962214,0.9121620056456105,0.892870198576812,0.8568221857876044,0.818034506387191,0.7799483658780412,0.7726978277842829,0.737914178966677,0.6866663014479869,0.6646308658023032,0.6237540152255688,0.5807191621667318,0.5531324217292692,0.49934342240025675,0.46963715186482213,0.45438559800963635,0.4111630156679718,0.39710790786673933,0.3799645943908215,0.3343428949376495,0.33481650463401275,0.2941154745101335,0.2691567496513901,0.2582582162923795,0.26061159083403096,0.21555830480675045,0.21973855651433144],
[0.22339272262160093,0.20536171165583733,0.20773517960939478,0.2195200637993003,0.20658709025576263,0.21943255024194214,0.19707944978231637,0.21460539626445224,0.20775345965044678,0.2059116090471941,0.20612452383086863,0.1763154103982527,0.1915384128488366,0.1719325054339711,0.17259522896520402,0.18469528549472572,0.19676172935156,0.1772103649355004,0.18943064711152385,0.19715965215222714,0.18916843616829737,0.192731447898877,0.2023807934593397,0.2117062561961639,0.23906901911532738,0.24112387034526128,0.2709557847712585,0.2896097723828276,0.31741848476174017,0.3515127147885782,0.34474292609920637,0.3773009868607405,0.4500501478666573,0.4705711072371086,0.5028073424755576,0.5589376285114257,0.6257339513551077,0.6646079858805244,0.7345593351996111,0.79436927334874,0.8560721465288992,0.8938444143644578,0.9101153195993374,0.9287413853840191,0.9036806024204107,0.8678304594966537,0.8264445299589929,0.7767613173585639,0.6980347207619488,0.6561624921374726,0.5921529058742141,0.5441094971810468,0.5235296006269728,0.5139982738836273,0.549334572848154,0.567028255251488,0.6225803074321395,0.6863095496484047,0.737662599861834,0.820131939710583,0.881059982568167,0.9072075582459578,0.9326821681932874,0.9655891879994126,0.9629767944664722,0.9778188071314353,1.0,0.9642686444256025,0.9621906407649278,0.9197395224023565,0.929400605741595,0.8796380131238722,0.827549391005836,0.8060054213223281,0.7633710154250632,0.7117082591474921,0.6699190537509745,0.6220697697436138,0.5863475485947933,0.54345537537446,0.5285976849549342,0.4686711795850857,0.4583478097888726,0.4372313065169426,0.403875125900775,0.3704244329535683,0.3877707592000548,0.34966128934071244,0.34237472009372955,0.3223718068139495,0.29898955486425105,0.27510779273926766,0.2601305208492235,0.23878365625007905,0.2178434053574099,0.18817112291236798],
...